Version 4
SHEET 1 880 680
WIRE -96 -48 -112 -48
WIRE -16 -48 -32 -48
WIRE -112 -32 -112 -48
WIRE -32 -32 -32 -48
WIRE 320 64 144 64
WIRE 240 112 224 112
WIRE 224 128 224 112
WIRE 144 144 144 64
WIRE 192 144 144 144
WIRE 320 160 320 64
WIRE 320 160 256 160
WIRE 352 160 320 160
WIRE -64 176 -112 176
WIRE 32 176 16 176
WIRE 48 176 32 176
WIRE 144 176 128 176
WIRE 192 176 144 176
WIRE 144 208 144 176
WIRE 224 208 224 192
WIRE 240 208 224 208
WIRE -112 224 -112 176
WIRE 144 288 144 272
WIRE -112 320 -112 304
WIRE 32 336 32 176
WIRE 192 336 32 336
WIRE 320 336 320 160
WIRE 320 336 256 336
FLAG 224 112 VCC
FLAG 224 208 VEE
FLAG 144 288 0
FLAG -112 320 0
FLAG 352 160 OUT
IOPIN 352 160 Out
FLAG -112 48 0
FLAG -32 48 0
FLAG -112 -48 VCC
FLAG -32 -48 VEE
FLAG -112 176 IN
SYMBOL Opamps\\UniversalOpamp2 224 160 R0
SYMATTR InstName U1
SYMBOL res 32 160 R90
WINDOW 0 0 56 VBottom 2
WINDOW 3 32 56 VTop 2
SYMATTR InstName R1
SYMATTR Value 100k
SYMBOL cap 128 208 R0
SYMATTR InstName C2
SYMATTR Value 1u
SYMBOL res 144 160 R90
WINDOW 0 0 56 VBottom 2
WINDOW 3 32 56 VTop 2
SYMATTR InstName R2
SYMATTR Value 100k
SYMBOL cap 256 320 R90
WINDOW 0 0 32 VBottom 2
WINDOW 3 32 32 VTop 2
SYMATTR InstName C1
SYMATTR Value 1u
SYMBOL voltage -112 208 R0
WINDOW 123 24 124 Left 2
WINDOW 39 0 0 Left 0
WINDOW 3 -66 -96 Left 2
SYMATTR Value2 AC 1
SYMATTR Value PULSE(0 1 0 1f 1f 1)
SYMATTR InstName V1
SYMBOL voltage -112 -48 R0
WINDOW 123 0 0 Left 0
WINDOW 39 0 0 Left 0
SYMATTR InstName V2
SYMATTR Value 2.5
SYMBOL voltage -32 -48 R0
WINDOW 123 0 0 Left 0
WINDOW 39 0 0 Left 0
SYMATTR InstName V3
SYMATTR Value -2.5
TEXT 136 -48 Left 2 !.ac oct 20 0.1 100k
TEXT 136 -24 Left 2 !;.tran 2
